81
bcs_file_10025.mcif -- in P1.1
Cu    7.907550    7.907550    7.907550
Cu    3.445050    5.479950    1.017450
Cu    1.017450    3.445050    5.479950
Cu    5.479950    1.017450    3.445050
Cu    7.781708    1.191487    1.080818
Cu    1.080818    7.781708    1.191487
Cu    1.191487    1.080818    7.781708
Cu    3.319207    3.271013    7.844182
Cu    7.844182    3.319207    3.271013
Cu    3.271013    7.844182    3.319207
Cu    5.605793    7.733513    5.543318
Cu    5.543318    5.605793    7.733513
Cu    7.733513    5.543318    5.605793
Cu    1.143292    5.653987    3.381682
Cu    3.381682    1.143292    5.653987
Cu    5.653987    3.381682    1.143292
 O    0.093713    0.093713    0.093713
 O    4.556213    4.368787    8.831287
 O    8.831287    4.556213    4.368787
 O    4.368787    8.831287    4.556213
 O    6.801743    6.801743    6.801743
 O    2.339243    6.585758    2.123258
 O    2.123258    2.339243    6.585758
 O    6.585758    2.123258    2.339243
Se    4.096575    4.096575    4.096575
Se    8.559075    0.365925    4.828425
Se    4.828425    8.559075    0.365925
Se    0.365925    4.828425    8.559075
 O    4.200105    2.408858    4.314345
 O    4.314345    4.200105    2.408858
 O    2.408858    4.314345    4.200105
 O    8.662605    2.053643    4.610655
 O    4.610655    8.662605    2.053643
 O    2.053643    4.610655    8.662605
 O    0.262395    6.516142    8.776845
 O    8.776845    0.262395    6.516142
 O    6.516142    8.776845    0.262395
 O    4.724895    6.871358    0.148155
 O    0.148155    4.724895    6.871358
 O    6.871358    0.148155    4.724895
Se    1.885853    1.885853    1.885853
Se    6.348353    2.576648    7.039147
Se    7.039147    6.348353    2.576648
Se    2.576648    7.039147    6.348353
 O    0.279353    2.418675    1.688610
 O    1.688610    0.279353    2.418675
 O    2.418675    1.688610    0.279353
 O    4.741853    2.043825    7.236390
 O    7.236390    4.741853    2.043825
 O    2.043825    7.236390    4.741853
 O    4.183147    6.506325    6.151110
 O    6.151110    4.183147    6.506325
 O    6.506325    6.151110    4.183147
 O    8.645648    6.881176    2.773890
 O    2.773890    8.645648    6.881176
 O    6.881176    2.773890    8.645648
 O    6.516142    8.776845    9.187395
 O    8.776845    9.187395    6.516142
 O    9.187395    6.516142    8.776845
 O    9.018713    9.018713    9.018713
 O    2.053643    4.610655   -0.262395
 O    4.556213    4.368787   -0.093713
 O   -0.262395    2.053643    4.610655
 O   -0.093713    4.556213    4.368787
 O    4.368787   -0.093713    4.556213
 O    4.610655   -0.262395    2.053643
 O    6.516142   -0.148155    0.262395
 O    6.881176    2.773890   -0.279352
 O    9.018713    0.093713    0.093713
 O    9.204352    2.418675    1.688610
 O   -0.279352    6.881176    2.773890
 O    0.262395    6.516142   -0.148155
 O    0.093713    9.018713    0.093713
 O    1.688610    9.204352    2.418675
 O   -0.148155    0.262395    6.516142
 O    0.093713    0.093713    9.018713
 O    2.773890   -0.279352    6.881176
 O    2.418675    1.688610    9.204352
 O    6.871358    9.073155    4.724895
 O    4.724895    6.871358    9.073155
 O    9.073155    4.724895    6.871358
